/*--------------------------------*- C++ -*----------------------------------*\
| =========                 |                                                 |
| \\      /  F ield         | OpenFOAM: The Open Source CFD Toolbox           |
|  \\    /   O peration     | Version:  4.1                                   |
|   \\  /    A nd           | Web:      www.OpenFOAM.org                      |
|    \\/     M anipulation  |                                                 |
\*---------------------------------------------------------------------------*/
FoamFile
{
    version     2.0;
    format      binary;
    class       volVectorField;
    location    "0";
    object      U;
}
// * * * * * * * * * * * * * * * * * * * * * * * * * * * * * * * * * * * * * //

dimensions      [0 1 -1 0 0 0 0];

internalField   uniform (0.001 0 0);

boundaryField
{
    haut
    {
        type            pressureInletOutletVelocity;
        value           uniform (0.001 0 0);
    }
    wall_fond
    {
        type            fixedValue;
        value           uniform (0 0 0);
    }
    wall_ymax
    {
        type            fixedValue;
        value           uniform (0 0 0);
    }
    wall_ymin
    {
        type            fixedValue;
        value           uniform (0 0 0);
    }
    amont_bas
    {
        type            outletInlet;
        outletValue     uniform (0 0 0);
        value           uniform (0 0 0);
    }
    wall_amont_haut
    {
        type            fixedValue;
        value           uniform (0 0 0);
    }
    aval_bas
    {
        type            zeroGradient;
    }
    wall_aval_haut
    {
        type            fixedValue;
        value           uniform (0 0 0);
    }
}


// ************************************************************************* //
